Circuit: * C:\Users\Bruger\Desktop\DUTTEN\fagprojekt\Power converter\Flyback.asc

.OP point found by inspection.

Date: Mon Apr 12 17:52:14 2021
Total elapsed time: 0.094 seconds.

tnom = 27
temp = 27
method = modified trap
totiter = 4580
traniter = 4580
tranpoints = 2039
accept = 1239
rejected = 800
matrix size = 4
fillins = 0
solver = Normal
Matrix Compiler1: 118 bytes object code size  0.1/0.1/[0.1]
Matrix Compiler2: 282 bytes object code size  0.1/0.1/[0.1]

