Circuit: * C:\Users\Bruger\Desktop\DUTTEN\fagprojekt\Power converter\Flyback.asc

Per .tran options, skipping operating point for transient analysis.
Ignoring empty pin current: Ix(u1:17)
Ignoring empty pin current: Ix(u1:19)

Date: Wed Apr 14 12:06:10 2021
Total elapsed time: 2.570 seconds.

tnom = 27
temp = 27
method = modified trap
totiter = 36147
traniter = 36147
tranpoints = 11407
accept = 8256
rejected = 3151
matrix size = 129
fillins = 61
solver = Normal
Thread vector: 48.6/28.2[4] 22.2/15.2[4] 3.2/4.5[1] 0.5/3.0[1]  2592/500
Matrix Compiler1: 10.16 KB object code size  7.4/4.0/[1.3]
Matrix Compiler2: 9.83 KB object code size  2.6/4.2/[0.7]

