Circuit: * C:\Users\Bruger\Desktop\DUTTEN\fagprojekt\Power converter\Full Bridge Rectifier.asc

.OP point found by inspection.

Date: Wed Apr 14 11:05:56 2021
Total elapsed time: 0.112 seconds.

tnom = 27
temp = 27
method = modified trap
totiter = 4580
traniter = 4580
tranpoints = 2039
accept = 1239
rejected = 800
matrix size = 4
fillins = 0
solver = Normal
Matrix Compiler1:       7 opcodes  0.1/[0.1]/0.1
Matrix Compiler2: off  [0.0]/0.1/0.1

